%Mem=61440MB 
%NProc=8 

#P HF/6-31G(d)  Opt=(Tight,MaxCycle=45) GFInput GFPrint SCF(Conver=8,XQC,MaxConventionalCycles=64,MaxCycle=128) Test 

 Optimization step - Input generated by PyRED MOLECULE-1 

0 1 
S        3.927813         1.317711        -0.669999
C        5.637670         1.793077        -0.631010
O        6.133142         2.623906        -1.310120
N        6.306248         1.042013         0.309252
H        7.286180         1.180053         0.445892
C        5.621117         0.100539         1.030073
O        6.115431        -0.609504         1.844527
C        4.143963         0.079839         0.657764
H        3.596632         0.415476         1.528943
C        3.681900        -1.339426         0.284971
H        4.212494        -1.662054        -0.604223
H        3.990809        -1.989689         1.095297
C        2.187675        -1.445615         0.070356
C        1.322749        -1.571919         1.144970
H        1.718526        -1.614865         2.145770
C       -0.052115        -1.656416         0.974430
H       -0.681369        -1.757229         1.836801
C       -0.587221        -1.616649        -0.304767
C        0.267931        -1.497660        -1.396296
H       -0.156290        -1.474992        -2.382814
C        1.630807        -1.415057        -1.206906
H        2.272177        -1.327495        -2.066165
O       -1.901248        -1.695725        -0.587586
C       -2.848685        -1.785873         0.451029
H       -2.700578        -2.708071         1.006942
H       -2.746819        -0.948871         1.129495
C       -4.231940        -1.786832        -0.176298
H       -4.956016        -1.991687         0.597331
H       -4.284870        -2.587003        -0.903961
N       -4.583453        -0.549018        -0.842464
C       -4.241285        -0.380066        -2.238255
H       -3.857684        -1.313387        -2.618886
H       -5.110995        -0.106578        -2.828281
H       -3.473856         0.374734        -2.382996
C       -5.054514         0.510292        -0.112018
N       -5.215578         0.323076         1.190464
C       -5.691592         1.313515         1.928048
H       -5.801569         1.095115         2.976692
C       -6.031017         2.553602         1.438113
H       -6.410000         3.322930         2.083457
C       -5.851571         2.756164         0.073562
H       -6.094241         3.705201        -0.371540
C       -5.362507         1.745393        -0.717071
H       -5.224846         1.901671        -1.767275
 

