%Mem=61440MB 
%NProc=8 

#P HF/6-31G(d)  SCF(Conver=8,XQC,MaxConventionalCycles=64,MaxCycle=128) NoSymm Test 
   Pop=mk IOp(6/33=2) GFInput GFPrint 

 MEP step - Input generated by PyRED MOLECULE-1 

0 1 
S        5.848399        -1.505388        -2.568195
C        7.553189        -1.854569        -2.918644
O        7.942895        -2.681715        -3.667593
N        8.359068        -1.017817        -2.180002
H        9.352206        -1.096292        -2.254122
C        7.786541        -0.102650        -1.337368
O        8.398316         0.644076        -0.644567
C        6.265529        -0.160871        -1.401904
H        5.934067         0.776332        -1.829647
C        5.652935        -0.322619         0.000015
H        5.965062        -1.274920         0.414730
H        6.086415         0.453661         0.619998
C        4.143370        -0.217018         0.009637
C        3.517563         1.018772         0.005962
H        4.111496         1.917231         0.016065
C        2.135007         1.141230        -0.000000
H        1.696110         2.119587         0.001256
C        1.346441        -0.000000         0.000000
C        1.958730        -1.249750         0.011278
H        1.338838        -2.126894         0.018405
C        3.333422        -1.351205         0.017082
H        3.784018        -2.328013         0.029721
O        0.000000         0.000000        -0.000000
C       -0.711747         1.214915        -0.043297
H       -0.504548         1.796342         0.851380
H       -0.420699         1.792997        -0.910695
C       -2.193526         0.887083        -0.104913
H       -2.749735         1.806129        -0.001268
H       -2.444925         0.248041         0.732334
N       -2.603845         0.216268        -1.321940
C       -2.553358        -1.228708        -1.379542
H       -2.313472        -1.608804        -0.399178
H       -3.510143        -1.646186        -1.678892
H       -1.790725        -1.584458        -2.066173
C       -2.848090         0.946192        -2.455575
N       -2.742719         2.264281        -2.360839
C       -2.994323         3.007349        -3.426750
H       -2.894246         4.069603        -3.281666
C       -3.355796         2.505804        -4.655904
H       -3.545071         3.155544        -5.488956
C       -3.455335         1.122202        -4.760783
H       -3.730008         0.666410        -5.695922
C       -3.203311         0.326224        -3.670455
H       -3.280301        -0.738575        -3.751569
 

