%Mem=61440MB 
%NProc=8 

#P HF/6-31G(d)  Opt=(Tight,MaxCycle=45) GFInput GFPrint SCF(Conver=8,XQC,MaxConventionalCycles=64,MaxCycle=128) Test 

 Optimization step - Input generated by PyRED MOLECULE-1 

0 1 
S       -1.033000         0.505000         3.673000
C       -1.383000         0.788000         5.230000
O       -1.959000         1.730000         5.657000
N       -0.869000        -0.389000         6.105000
H       -0.981000        -0.462000         6.955000
C       -0.104000        -1.437000         5.184000
O        0.387000        -2.446000         5.564000
C       -0.086000        -0.889000         3.667000
H       -0.434000        -1.511000         3.009000
C        1.369000        -0.590000         3.331000
H        1.654000         0.194000         3.827000
H        1.921000        -1.330000         3.628000
C        1.612000        -0.352000         1.833000
C        1.789000        -1.418000         0.969000
H        1.754000        -2.326000         1.309000
C        2.017000        -1.195000        -0.382000
H        2.138000        -1.941000        -0.990000
C        2.070000         0.110000        -0.851000
C        1.908000         1.175000         0.007000
H        1.961000         2.084000        -0.328000
C        1.668000         0.940000         1.352000
H        1.539000         1.687000         1.957000
O        2.282000         0.375000        -2.194000
C        2.076000        -0.673000        -3.087000
H        2.785000        -1.331000        -3.011000
H        1.243000        -1.130000        -2.891000
C        2.044000        -0.072000        -4.504000
H        1.933000        -0.775000        -5.164000
H        2.885000         0.370000        -4.700000
N        0.942000         0.880000        -4.591000
C        1.171000         2.293000        -4.416000
H        1.541000         2.454000        -3.534000
H        1.795000         2.606000        -5.090000
H        0.332000         2.771000        -4.506000
C       -0.414000         0.400000        -4.840000
N       -0.636000        -0.923000        -4.985000
C       -1.880000        -1.405000        -5.217000
H       -2.025000        -2.359000        -5.321000
C       -2.938000        -0.527000        -5.304000
H       -3.835000        -0.860000        -5.467000
C       -2.722000         0.799000        -5.162000
H       -3.469000         1.414000        -5.226000
C       -1.477000         1.282000        -4.932000
H       -1.332000         2.236000        -4.833000
 

